#
# *******************
# Calendar Parameters
# *******************
 &CAL_NML
 TheCalendar = 'gregorian',
 startDate_1 = 19920602,
 startDate_2 = 220000,
 /
