
# ***************
# ECCO parameters
# ***************
 &ECCO_PARMS
 expId = 'Natlbox_obcs',
 /
