# KPP parameters
 &KPP_PARM01
 kpp_dumpFreq    = 0.,
 kpp_taveFreq    = 2628000.0,
 KPPwriteState   = .TRUE.,
 Ricr    = 0.354
 Riinfty = 0.699
 &
