#
# ********
# Packages
# ********
 &PACKAGES
 useGMRedi    = .FALSE.,
 useKPP       = .FALSE.,
 useGrdchk    = .FALSE.,
 useECCO      = .TRUE.,
 &
