# Packages
 &PACKAGES
  useGMRedi = .TRUE.,
  useSEAICE = .TRUE.,
 &
