# Packages
 &PACKAGES
 useGMRedi=.TRUE.,
 useKPP=.TRUE.
 useSBO=.TRUE.
 &
