#
# ***************
# Open boundaries
# ***************
 &PACKAGES
 useKPP	      = .TRUE.,
 useGMRedi    = .FALSE.,
 useECCO      = .TRUE.,
 &
