#
# ***************
# Open boundaries
# ***************
 &PACKAGES
 useKPP	      = .FALSE.,
 useGMRedi    = .FALSE.,
 useECCO      = .TRUE.,
 useSeaice    = .FALSE.,
 useGrdchk    = .FALSE.,
 &
