#
# ***************
# Open boundaries
# ***************
 &KPP_PARM01
 KPPmixingMaps   = .FALSE.,
 KPPwriteState   = .FALSE.,
 kpp_dumpFreq    = 15768000.0
 &
