#
# ***************
# package flags
# ***************
 &PACKAGES
 useKPP	      = .TRUE.,
 useGMRedi    = .TRUE.,
 useECCO      = .TRUE.,
 useSeaice    = .FALSE.,
 useGrdchk    = .TRUE.,
 &
