# Packages
 &PACKAGES
 useGMRedi=.TRUE.,
 useKPP=.TRUE.,
 &
