# GM+Redi package parameters:
 &GM_PARM01 
 GM_background_K=1000.d0,
 GM_taper_scheme='ldd97',
 GM_maxSlope=1.E-02
 &
